metrix-mapping/src/test/resources/expected/Reseau_test_Topase_avec_report_seuils_reduits_1_20150101_0100.xml
<?xml version="1.0" encoding="UTF-8"?>
<iidm:network xmlns:iidm="http://www.itesla_project.eu/schema/iidm/1_0" xmlns:hapc="http://www.itesla_project.eu/schema/iidm/ext/hvdc_angle_droop_active_power_control/1_0" xmlns:hopr="http://www.itesla_project.eu/schema/iidm/ext/hvdc_operator_active_power_range/1_0" id="Reseau_test_Topase_avec_report_seuils_reduits" caseDate="2015-09-29T09:14:00.000+01:00" forecastDistance="0" sourceFormat="NF">
    <iidm:substation id="FP.AN" country="FR" tso="RTE">
        <iidm:property name="paysCvg" value="FRANCE"/>
        <iidm:property name="regionCvg" value="LILLE"/>
        <iidm:voltageLevel id="FP.AND1" nominalV="380.0" lowVoltageLimit="342.0" highVoltageLimit="418.00012" topologyKind="NODE_BREAKER">
            <iidm:nodeBreakerTopology nodeCount="14">
                <iidm:busbarSection id="FP.AND1_1" name="1" node="0" v="380.0" angle="0.0"/>
                <iidm:busbarSection id="FP.AND1_mnv" name="mnv" node="1" v="380.0" angle="0.0"/>
                <iidm:switch id="FP.AND1_FP.AND1  FVERGE1  1_SC5_0" name="FP.AND1  FVERGE1  1_SC5_0" kind="DISCONNECTOR" retained="false" open="false" node1="0" node2="2"/>
                <iidm:switch id="FP.AND1_FP.AND1  FVERGE1  1_SC5_1" name="FP.AND1  FVERGE1  1_SC5_1" kind="DISCONNECTOR" retained="false" open="true" node1="1" node2="2"/>
                <iidm:switch id="FP.AND1_FP.AND1  FVERGE1  1_DJ5" name="FP.AND1  FVERGE1  1_DJ5" kind="BREAKER" retained="false" open="false" node1="2" node2="3"/>
                <iidm:switch id="FP.AND1_FP.AND1  FVERGE1  2_SC7_0" name="FP.AND1  FVERGE1  2_SC7_0" kind="DISCONNECTOR" retained="false" open="false" node1="0" node2="4"/>
                <iidm:switch id="FP.AND1_FP.AND1  FVERGE1  2_SC7_1" name="FP.AND1  FVERGE1  2_SC7_1" kind="DISCONNECTOR" retained="false" open="true" node1="1" node2="4"/>
                <iidm:switch id="FP.AND1_FP.AND1  FVERGE1  2_DJ7" name="FP.AND1  FVERGE1  2_DJ7" kind="BREAKER" retained="false" open="false" node1="4" node2="5"/>
                <iidm:switch id="FP.AND1_FSSV.O1  FP.AND1  1_SC9_0" name="FSSV.O1  FP.AND1  1_SC9_0" kind="DISCONNECTOR" retained="false" open="false" node1="0" node2="6"/>
                <iidm:switch id="FP.AND1_FSSV.O1  FP.AND1  1_SC9_1" name="FSSV.O1  FP.AND1  1_SC9_1" kind="DISCONNECTOR" retained="false" open="true" node1="1" node2="6"/>
                <iidm:switch id="FP.AND1_FSSV.O1  FP.AND1  1_DJ9" name="FSSV.O1  FP.AND1  1_DJ9" kind="BREAKER" retained="false" open="false" node1="6" node2="7"/>
                <iidm:switch id="FP.AND1_FSSV.O1  FP.AND1  2_SC11_0" name="FSSV.O1  FP.AND1  2_SC11_0" kind="DISCONNECTOR" retained="false" open="false" node1="0" node2="8"/>
                <iidm:switch id="FP.AND1_FSSV.O1  FP.AND1  2_SC11_1" name="FSSV.O1  FP.AND1  2_SC11_1" kind="DISCONNECTOR" retained="false" open="true" node1="1" node2="8"/>
                <iidm:switch id="FP.AND1_FSSV.O1  FP.AND1  2_DJ11" name="FSSV.O1  FP.AND1  2_DJ11" kind="BREAKER" retained="false" open="false" node1="8" node2="9"/>
                <iidm:switch id="FP.AND1_FP.AND1  FTDPRA1  1_SC13_0" name="FP.AND1  FTDPRA1  1_SC13_0" kind="DISCONNECTOR" retained="false" open="false" node1="0" node2="10"/>
                <iidm:switch id="FP.AND1_FP.AND1  FTDPRA1  1_SC13_1" name="FP.AND1  FTDPRA1  1_SC13_1" kind="DISCONNECTOR" retained="false" open="true" node1="1" node2="10"/>
                <iidm:switch id="FP.AND1_FP.AND1  FTDPRA1  1_DJ13" name="FP.AND1  FTDPRA1  1_DJ13" kind="BREAKER" retained="false" open="false" node1="10" node2="11"/>
                <iidm:switch id="FP.AND1__SC14_0" name="_SC14_0" kind="DISCONNECTOR" retained="false" open="false" node1="0" node2="12"/>
                <iidm:switch id="FP.AND1__SC14_1" name="_SC14_1" kind="DISCONNECTOR" retained="false" open="true" node1="1" node2="12"/>
                <iidm:switch id="FP.AND1__SC15_0" name="_SC15_0" kind="DISCONNECTOR" retained="false" open="true" node1="0" node2="13"/>
                <iidm:switch id="FP.AND1__SC15_1" name="_SC15_1" kind="DISCONNECTOR" retained="false" open="false" node1="1" node2="13"/>
                <iidm:switch id="FP.AND1_FP.AND1_DJ_OMN" name="FP.AND1_DJ_OMN" kind="BREAKER" retained="false" open="false" node1="12" node2="13"/>
            </iidm:nodeBreakerTopology>
        </iidm:voltageLevel>
        <iidm:voltageLevel id="FTDPRA1" nominalV="380.0" lowVoltageLimit="342.0" highVoltageLimit="418.00012" topologyKind="NODE_BREAKER">
            <iidm:property name="siteInit" value="FTDPR"/>
            <iidm:nodeBreakerTopology nodeCount="14">
                <iidm:busbarSection id="FTDPRA1_1" name="1" node="0" v="380.0" angle="-0.038091477"/>
                <iidm:busbarSection id="FTDPRA1_mnv" name="mnv" node="1" v="380.0" angle="-0.038091477"/>
                <iidm:switch id="FTDPRA1_FTDPRA1  FVERGE1  1_SC5_0" name="FTDPRA1  FVERGE1  1_SC5_0" kind="DISCONNECTOR" retained="false" open="false" node1="0" node2="2"/>
                <iidm:switch id="FTDPRA1_FTDPRA1  FVERGE1  1_SC5_1" name="FTDPRA1  FVERGE1  1_SC5_1" kind="DISCONNECTOR" retained="false" open="true" node1="1" node2="2"/>
                <iidm:switch id="FTDPRA1_FTDPRA1  FVERGE1  1_DJ5" name="FTDPRA1  FVERGE1  1_DJ5" kind="BREAKER" retained="false" open="false" node1="2" node2="3"/>
                <iidm:switch id="FTDPRA1_FTDPRA1  FVERGE1  2_SC7_0" name="FTDPRA1  FVERGE1  2_SC7_0" kind="DISCONNECTOR" retained="false" open="false" node1="0" node2="4"/>
                <iidm:switch id="FTDPRA1_FTDPRA1  FVERGE1  2_SC7_1" name="FTDPRA1  FVERGE1  2_SC7_1" kind="DISCONNECTOR" retained="false" open="true" node1="1" node2="4"/>
                <iidm:switch id="FTDPRA1_FTDPRA1  FVERGE1  2_DJ7" name="FTDPRA1  FVERGE1  2_DJ7" kind="BREAKER" retained="false" open="false" node1="4" node2="5"/>
                <iidm:switch id="FTDPRA1_FVALDI1  FTDPRA1  1_SC9_0" name="FVALDI1  FTDPRA1  1_SC9_0" kind="DISCONNECTOR" retained="false" open="false" node1="0" node2="6"/>
                <iidm:switch id="FTDPRA1_FVALDI1  FTDPRA1  1_SC9_1" name="FVALDI1  FTDPRA1  1_SC9_1" kind="DISCONNECTOR" retained="false" open="true" node1="1" node2="6"/>
                <iidm:switch id="FTDPRA1_FVALDI1  FTDPRA1  1_DJ9" name="FVALDI1  FTDPRA1  1_DJ9" kind="BREAKER" retained="false" open="false" node1="6" node2="7"/>
                <iidm:switch id="FTDPRA1_FVALDI1  FTDPRA1  2_SC11_0" name="FVALDI1  FTDPRA1  2_SC11_0" kind="DISCONNECTOR" retained="false" open="false" node1="0" node2="8"/>
                <iidm:switch id="FTDPRA1_FVALDI1  FTDPRA1  2_SC11_1" name="FVALDI1  FTDPRA1  2_SC11_1" kind="DISCONNECTOR" retained="false" open="true" node1="1" node2="8"/>
                <iidm:switch id="FTDPRA1_FVALDI1  FTDPRA1  2_DJ11" name="FVALDI1  FTDPRA1  2_DJ11" kind="BREAKER" retained="false" open="false" node1="8" node2="9"/>
                <iidm:switch id="FTDPRA1_FP.AND1  FTDPRA1  1_SC13_0" name="FP.AND1  FTDPRA1  1_SC13_0" kind="DISCONNECTOR" retained="false" open="false" node1="0" node2="10"/>
                <iidm:switch id="FTDPRA1_FP.AND1  FTDPRA1  1_SC13_1" name="FP.AND1  FTDPRA1  1_SC13_1" kind="DISCONNECTOR" retained="false" open="true" node1="1" node2="10"/>
                <iidm:switch id="FTDPRA1_FP.AND1  FTDPRA1  1_DJ13" name="FP.AND1  FTDPRA1  1_DJ13" kind="BREAKER" retained="false" open="false" node1="10" node2="11"/>
                <iidm:switch id="FTDPRA1__SC14_0" name="_SC14_0" kind="DISCONNECTOR" retained="false" open="false" node1="0" node2="12"/>
                <iidm:switch id="FTDPRA1__SC14_1" name="_SC14_1" kind="DISCONNECTOR" retained="false" open="true" node1="1" node2="12"/>
                <iidm:switch id="FTDPRA1__SC15_0" name="_SC15_0" kind="DISCONNECTOR" retained="false" open="true" node1="0" node2="13"/>
                <iidm:switch id="FTDPRA1__SC15_1" name="_SC15_1" kind="DISCONNECTOR" retained="false" open="false" node1="1" node2="13"/>
                <iidm:switch id="FTDPRA1_FTDPRA1_DJ_OMN" name="FTDPRA1_DJ_OMN" kind="BREAKER" retained="false" open="false" node1="12" node2="13"/>
            </iidm:nodeBreakerTopology>
        </iidm:voltageLevel>
        <iidm:twoWindingsTransformer id="FP.AND1  FTDPRA1  1" r="13.0" x="1.0" g="0.0" b="0.0" ratedU1="380.0" ratedU2="380.0" node1="11" voltageLevelId1="FTDPRA1" node2="11" voltageLevelId2="FP.AND1" p1="-95.99961" p2="95.99961">
            <iidm:phaseTapChanger lowTapPosition="0" tapPosition="16" regulationMode="CURRENT_LIMITER" regulationValue="600.0" regulating="true">
                <iidm:terminalRef id="FP.AND1  FTDPRA1  1" side="ONE"/>
                <iidm:step r="6.7052996E-4" x="6.616116E-4" g="0.0" b="0.0" rho="1.0" alpha="-9.167248"/>
                <iidm:step r="6.7052996E-4" x="6.616116E-4" g="0.0" b="0.0" rho="1.0" alpha="-0.15"/>
                <iidm:step r="6.7052996E-4" x="6.616116E-4" g="0.0" b="0.0" rho="1.0" alpha="-0.14"/>
                <iidm:step r="6.7052996E-4" x="6.616116E-4" g="0.0" b="0.0" rho="1.0" alpha="-0.13"/>
                <iidm:step r="6.7052996E-4" x="6.616116E-4" g="0.0" b="0.0" rho="1.0" alpha="-0.12"/>
                <iidm:step r="6.7052996E-4" x="6.616116E-4" g="0.0" b="0.0" rho="1.0" alpha="-0.11"/>
                <iidm:step r="6.7052996E-4" x="6.616116E-4" g="0.0" b="0.0" rho="1.0" alpha="-0.1"/>
                <iidm:step r="6.7052996E-4" x="6.616116E-4" g="0.0" b="0.0" rho="1.0" alpha="-0.09"/>
                <iidm:step r="6.7052996E-4" x="6.616116E-4" g="0.0" b="0.0" rho="1.0" alpha="-0.08"/>
                <iidm:step r="6.7052996E-4" x="6.616116E-4" g="0.0" b="0.0" rho="1.0" alpha="-0.07"/>
                <iidm:step r="6.7052996E-4" x="6.616116E-4" g="0.0" b="0.0" rho="1.0" alpha="-0.06"/>
                <iidm:step r="6.7052996E-4" x="6.616116E-4" g="0.0" b="0.0" rho="1.0" alpha="-0.05"/>
                <iidm:step r="6.7052996E-4" x="6.616116E-4" g="0.0" b="0.0" rho="1.0" alpha="-0.04"/>
                <iidm:step r="6.7052996E-4" x="6.616116E-4" g="0.0" b="0.0" rho="1.0" alpha="-0.03"/>
                <iidm:step r="6.7052996E-4" x="6.616116E-4" g="0.0" b="0.0" rho="1.0" alpha="-0.02"/>
                <iidm:step r="6.7052996E-4" x="6.616116E-4" g="0.0" b="0.0" rho="1.0" alpha="-0.01"/>
                <iidm:step r="6.7052996E-4" x="6.616116E-4" g="0.0" b="0.0" rho="1.0" alpha="0.0"/>
                <iidm:step r="6.7052996E-4" x="6.616116E-4" g="0.0" b="0.0" rho="1.0" alpha="0.01"/>
                <iidm:step r="6.7052996E-4" x="6.616116E-4" g="0.0" b="0.0" rho="1.0" alpha="0.02"/>
                <iidm:step r="6.7052996E-4" x="6.616116E-4" g="0.0" b="0.0" rho="1.0" alpha="0.03"/>
                <iidm:step r="6.7052996E-4" x="6.616116E-4" g="0.0" b="0.0" rho="1.0" alpha="0.04"/>
                <iidm:step r="6.7052996E-4" x="6.616116E-4" g="0.0" b="0.0" rho="1.0" alpha="0.05"/>
                <iidm:step r="6.7052996E-4" x="6.616116E-4" g="0.0" b="0.0" rho="1.0" alpha="0.06"/>
                <iidm:step r="6.7052996E-4" x="6.616116E-4" g="0.0" b="0.0" rho="1.0" alpha="0.07"/>
                <iidm:step r="6.7052996E-4" x="6.616116E-4" g="0.0" b="0.0" rho="1.0" alpha="0.08"/>
                <iidm:step r="6.7052996E-4" x="6.616116E-4" g="0.0" b="0.0" rho="1.0" alpha="0.09"/>
                <iidm:step r="6.7052996E-4" x="6.616116E-4" g="0.0" b="0.0" rho="1.0" alpha="0.1"/>
                <iidm:step r="6.7052996E-4" x="6.616116E-4" g="0.0" b="0.0" rho="1.0" alpha="0.11"/>
                <iidm:step r="6.7052996E-4" x="6.616116E-4" g="0.0" b="0.0" rho="1.0" alpha="0.12"/>
                <iidm:step r="6.7052996E-4" x="6.616116E-4" g="0.0" b="0.0" rho="1.0" alpha="0.13"/>
                <iidm:step r="6.7052996E-4" x="6.616116E-4" g="0.0" b="0.0" rho="1.0" alpha="0.14"/>
                <iidm:step r="6.7052996E-4" x="6.616116E-4" g="0.0" b="0.0" rho="1.0" alpha="0.15"/>
                <iidm:step r="6.7052996E-4" x="6.616116E-4" g="0.0" b="0.0" rho="1.0" alpha="9.167248"/>
            </iidm:phaseTapChanger>
            <iidm:currentLimits1 permanentLimit="400.0"/>
            <iidm:currentLimits2 permanentLimit="400.0">
                <iidm:temporaryLimit name="IT20" acceptableDuration="1200" value="450.00003"/>
                <iidm:temporaryLimit name="IT10" acceptableDuration="600" value="500.00003"/>
                <iidm:temporaryLimit name="IT0.0166667" acceptableDuration="1"/>
            </iidm:currentLimits2>
        </iidm:twoWindingsTransformer>
    </iidm:substation>
    <iidm:substation id="FS.BI" country="FR" tso="RTE">
        <iidm:property name="paysCvg" value="FRANCE"/>
        <iidm:property name="regionCvg" value="LILLE"/>
        <iidm:voltageLevel id="FS.BIS1" nominalV="380.0" lowVoltageLimit="342.0" highVoltageLimit="418.00012" topologyKind="NODE_BREAKER">
            <iidm:nodeBreakerTopology nodeCount="12">
                <iidm:busbarSection id="FS.BIS1_1" name="1" node="0" v="380.0" angle="-0.019045739"/>
                <iidm:busbarSection id="FS.BIS1_mnv" name="mnv" node="1" v="380.0" angle="-0.019045739"/>
                <iidm:switch id="FS.BIS1_FS.BIS1  FVALDI1  1_SC5_0" name="FS.BIS1  FVALDI1  1_SC5_0" kind="DISCONNECTOR" retained="false" open="false" node1="0" node2="2"/>
                <iidm:switch id="FS.BIS1_FS.BIS1  FVALDI1  1_SC5_1" name="FS.BIS1  FVALDI1  1_SC5_1" kind="DISCONNECTOR" retained="false" open="true" node1="1" node2="2"/>
                <iidm:switch id="FS.BIS1_FS.BIS1  FVALDI1  1_DJ5" name="FS.BIS1  FVALDI1  1_DJ5" kind="BREAKER" retained="false" open="false" node1="2" node2="3"/>
                <iidm:switch id="FS.BIS1_FS.BIS1  FVALDI1  2_SC7_0" name="FS.BIS1  FVALDI1  2_SC7_0" kind="DISCONNECTOR" retained="false" open="true" node1="0" node2="4"/>
                <iidm:switch id="FS.BIS1_FS.BIS1  FVALDI1  2_SC7_1" name="FS.BIS1  FVALDI1  2_SC7_1" kind="DISCONNECTOR" retained="false" open="false" node1="1" node2="4"/>
                <iidm:switch id="FS.BIS1_FS.BIS1  FVALDI1  2_DJ7" name="FS.BIS1  FVALDI1  2_DJ7" kind="BREAKER" retained="false" open="false" node1="4" node2="5"/>
                <iidm:switch id="FS.BIS1__SC12_0" name="_SC12_0" kind="DISCONNECTOR" retained="false" open="false" node1="0" node2="6"/>
                <iidm:switch id="FS.BIS1__SC12_1" name="_SC12_1" kind="DISCONNECTOR" retained="false" open="true" node1="1" node2="6"/>
                <iidm:switch id="FS.BIS1__SC13_0" name="_SC13_0" kind="DISCONNECTOR" retained="false" open="true" node1="0" node2="7"/>
                <iidm:switch id="FS.BIS1__SC13_1" name="_SC13_1" kind="DISCONNECTOR" retained="false" open="false" node1="1" node2="7"/>
                <iidm:switch id="FS.BIS1_FS.BIS1_DJ_OMN" name="FS.BIS1_DJ_OMN" kind="BREAKER" retained="true" open="false" node1="6" node2="7"/>
                <iidm:switch id="FS.BIS1_Disj FS.BIS1 FSSV.O1 1" name="Disj FS.BIS1 FSSV.O1 1" kind="BREAKER" retained="false" open="false" node1="8" node2="9"/>
                <iidm:switch id="FS.BIS1_Sect 1 FS.BIS1 FSSV.O1 1" name="Sect 1 FS.BIS1 FSSV.O1 1" kind="DISCONNECTOR" retained="false" open="false" node1="9" node2="0"/>
                <iidm:switch id="FS.BIS1_Sect mnv FS.BIS1 FSSV.O1 1" name="Sect mnv FS.BIS1 FSSV.O1 1" kind="DISCONNECTOR" retained="false" open="true" node1="9" node2="1"/>
                <iidm:switch id="FS.BIS1_Disj FS.BIS1 FSSV.O1 2" name="Disj FS.BIS1 FSSV.O1 2" kind="BREAKER" retained="false" open="false" node1="10" node2="11"/>
                <iidm:switch id="FS.BIS1_Sect 1 FS.BIS1 FSSV.O1 2" name="Sect 1 FS.BIS1 FSSV.O1 2" kind="DISCONNECTOR" retained="false" open="true" node1="11" node2="0"/>
                <iidm:switch id="FS.BIS1_Sect mnv FS.BIS1 FSSV.O1 2" name="Sect mnv FS.BIS1 FSSV.O1 2" kind="DISCONNECTOR" retained="false" open="false" node1="11" node2="1"/>
            </iidm:nodeBreakerTopology>
        </iidm:voltageLevel>
    </iidm:substation>
    <iidm:substation id="FSSV." country="FR" tso="RTE">
        <iidm:property name="paysCvg" value="FRANCE"/>
        <iidm:property name="regionCvg" value="LILLE"/>
        <iidm:voltageLevel id="FSSV.O1" nominalV="380.0" lowVoltageLimit="342.0" highVoltageLimit="418.00012" topologyKind="NODE_BREAKER">
            <iidm:nodeBreakerTopology nodeCount="22">
                <iidm:busbarSection id="FSSV.O1_1" name="1" node="0" v="380.0" angle="0.03809135"/>
                <iidm:busbarSection id="FSSV.O1_mnv" name="mnv" node="1" v="380.0" angle="0.03809135"/>
                <iidm:switch id="FSSV.O1_FSSV.O11_G_SC3_0" name="FSSV.O11_G_SC3_0" kind="DISCONNECTOR" retained="false" open="false" node1="0" node2="2"/>
                <iidm:switch id="FSSV.O1_FSSV.O11_G_SC3_1" name="FSSV.O11_G_SC3_1" kind="DISCONNECTOR" retained="false" open="true" node1="1" node2="2"/>
                <iidm:switch id="FSSV.O1_FSSV.O11_G_DJ3" name="FSSV.O11_G_DJ3" kind="BREAKER" retained="false" open="false" node1="2" node2="3"/>
                <iidm:switch id="FSSV.O1_FSSV.O1  FP.AND1  1_SC5_0" name="FSSV.O1  FP.AND1  1_SC5_0" kind="DISCONNECTOR" retained="false" open="true" node1="0" node2="4"/>
                <iidm:switch id="FSSV.O1_FSSV.O1  FP.AND1  1_SC5_1" name="FSSV.O1  FP.AND1  1_SC5_1" kind="DISCONNECTOR" retained="false" open="false" node1="1" node2="4"/>
                <iidm:switch id="FSSV.O1_FSSV.O1  FP.AND1  1_DJ5" name="FSSV.O1  FP.AND1  1_DJ5" kind="BREAKER" retained="false" open="false" node1="4" node2="5"/>
                <iidm:switch id="FSSV.O1_FSSV.O1  FP.AND1  2_SC7_0" name="FSSV.O1  FP.AND1  2_SC7_0" kind="DISCONNECTOR" retained="false" open="false" node1="0" node2="6"/>
                <iidm:switch id="FSSV.O1_FSSV.O1  FP.AND1  2_SC7_1" name="FSSV.O1  FP.AND1  2_SC7_1" kind="DISCONNECTOR" retained="false" open="true" node1="1" node2="6"/>
                <iidm:switch id="FSSV.O1_FSSV.O1  FP.AND1  2_DJ7" name="FSSV.O1  FP.AND1  2_DJ7" kind="BREAKER" retained="false" open="false" node1="6" node2="7"/>
                <iidm:switch id="FSSV.O1__SC12_0" name="_SC12_0" kind="DISCONNECTOR" retained="false" open="false" node1="0" node2="8"/>
                <iidm:switch id="FSSV.O1__SC12_1" name="_SC12_1" kind="DISCONNECTOR" retained="false" open="true" node1="1" node2="8"/>
                <iidm:switch id="FSSV.O1__SC13_0" name="_SC13_0" kind="DISCONNECTOR" retained="false" open="true" node1="0" node2="9"/>
                <iidm:switch id="FSSV.O1__SC13_1" name="_SC13_1" kind="DISCONNECTOR" retained="false" open="false" node1="1" node2="9"/>
                <iidm:switch id="FSSV.O1_FSSV.O1_DJ_OMN" name="FSSV.O1_DJ_OMN" kind="BREAKER" retained="true" open="false" node1="8" node2="9"/>
                <iidm:switch id="FSSV.O1_Disj HVDC1" name="Disj HVDC1" kind="BREAKER" retained="false" open="false" node1="10" node2="11"/>
                <iidm:switch id="FSSV.O1_Sect 1 HVDC1" name="Sect 1 HVDC1" kind="DISCONNECTOR" retained="false" open="true" node1="11" node2="0"/>
                <iidm:switch id="FSSV.O1_Sect mnv HVDC1" name="Sect mnv HVDC1" kind="DISCONNECTOR" retained="false" open="false" node1="11" node2="1"/>
                <iidm:switch id="FSSV.O1_Disj HVDC2" name="Disj HVDC2" kind="BREAKER" retained="false" open="false" node1="12" node2="13"/>
                <iidm:switch id="FSSV.O1_Sect 1 HVDC2" name="Sect 1 HVDC2" kind="DISCONNECTOR" retained="false" open="false" node1="13" node2="0"/>
                <iidm:switch id="FSSV.O1_Sect mnv HVDC2" name="Sect mnv HVDC2" kind="DISCONNECTOR" retained="false" open="true" node1="13" node2="1"/>
                <iidm:switch id="FSSV.O1_Disj FS.BIS1 FSSV.O1 1" name="Disj FS.BIS1 FSSV.O1 1" kind="BREAKER" retained="false" open="false" node1="14" node2="15"/>
                <iidm:switch id="FSSV.O1_Sect 1 FS.BIS1 FSSV.O1 1" name="Sect 1 FS.BIS1 FSSV.O1 1" kind="DISCONNECTOR" retained="false" open="true" node1="15" node2="0"/>
                <iidm:switch id="FSSV.O1_Sect mnv FS.BIS1 FSSV.O1 1" name="Sect mnv FS.BIS1 FSSV.O1 1" kind="DISCONNECTOR" retained="false" open="false" node1="15" node2="1"/>
                <iidm:switch id="FSSV.O1_Disj FS.BIS1 FSSV.O1 2" name="Disj FS.BIS1 FSSV.O1 2" kind="BREAKER" retained="false" open="false" node1="16" node2="17"/>
                <iidm:switch id="FSSV.O1_Sect 1 FS.BIS1 FSSV.O1 2" name="Sect 1 FS.BIS1 FSSV.O1 2" kind="DISCONNECTOR" retained="false" open="false" node1="17" node2="0"/>
                <iidm:switch id="FSSV.O1_Sect mnv FS.BIS1 FSSV.O1 2" name="Sect mnv FS.BIS1 FSSV.O1 2" kind="DISCONNECTOR" retained="false" open="true" node1="17" node2="1"/>
                <iidm:switch id="FSSV.O1_Disj FSSV.O11_L" name="Disj FSSV.O11_L" kind="BREAKER" retained="false" open="false" node1="18" node2="19"/>
                <iidm:switch id="FSSV.O1_Sect 1 FSSV.O11_L" name="Sect 1 FSSV.O11_L" kind="DISCONNECTOR" retained="false" open="false" node1="19" node2="0"/>
                <iidm:switch id="FSSV.O1_Sect mnv FSSV.O11_L" name="Sect mnv FSSV.O11_L" kind="DISCONNECTOR" retained="false" open="true" node1="19" node2="1"/>
                <iidm:switch id="FSSV.O1_Disj FSSV.O12_G" name="Disj FSSV.O12_G" kind="BREAKER" retained="false" open="false" node1="20" node2="21"/>
                <iidm:switch id="FSSV.O1_Sect 1 FSSV.O12_G" name="Sect 1 FSSV.O12_G" kind="DISCONNECTOR" retained="false" open="true" node1="21" node2="0"/>
                <iidm:switch id="FSSV.O1_Sect mnv FSSV.O12_G" name="Sect mnv FSSV.O12_G" kind="DISCONNECTOR" retained="false" open="false" node1="21" node2="1"/>
            </iidm:nodeBreakerTopology>
            <iidm:generator id="FSSV.O11_G" energySource="THERMAL" minP="5.0" maxP="500.0" voltageRegulatorOn="true" targetP="480.0" targetV="406.45004" targetQ="2.35231" node="3" p="-480.0">
                <iidm:property name="genreCvg" value="CHARBON"/>
                <iidm:reactiveCapabilityCurve>
                    <iidm:point p="0.0" minQ="-200.0" maxQ="200.0"/>
                    <iidm:point p="2000.0" minQ="-200.0" maxQ="200.0"/>
                </iidm:reactiveCapabilityCurve>
            </iidm:generator>
            <iidm:generator id="FSSV.O12_G" energySource="THERMAL" minP="5.0" maxP="500.0" voltageRegulatorOn="true" targetP="480.0" targetV="406.45004" targetQ="2.35231" node="20" p="-480.0">
                <iidm:property name="genreCvg" value="CHARBON"/>
                <iidm:reactiveCapabilityCurve>
                    <iidm:point p="0.0" minQ="-200.0" maxQ="200.0"/>
                    <iidm:point p="2000.0" minQ="-200.0" maxQ="200.0"/>
                </iidm:reactiveCapabilityCurve>
            </iidm:generator>
            <iidm:load id="FSSV.O11_L" loadType="UNDEFINED" p0="480.0" q0="4.8" node="18" p="480.0"/>
            <iidm:vscConverterStation id="FSSV.O1_FSSV.O1_HVDC1" name="FSSV.O1_HVDC1" voltageRegulatorOn="false" lossFactor="2.0" voltageSetpoint="406.0" reactivePowerSetpoint="0.0" node="10" p="0.0">
                <iidm:reactiveCapabilityCurve>
                    <iidm:point p="-1011.0" minQ="-300.0" maxQ="300.0"/>
                    <iidm:point p="1011.0" minQ="-300.0" maxQ="300.0"/>
                </iidm:reactiveCapabilityCurve>
            </iidm:vscConverterStation>
            <iidm:vscConverterStation id="FSSV.O1_FSSV.O1_HVDC2" name="FSSV.O1_HVDC2" voltageRegulatorOn="false" lossFactor="2.0" voltageSetpoint="406.0" reactivePowerSetpoint="0.0" node="12" p="0.0">
                <iidm:reactiveCapabilityCurve>
                    <iidm:point p="-1011.0" minQ="-300.0" maxQ="300.0"/>
                    <iidm:point p="1011.0" minQ="-300.0" maxQ="300.0"/>
                </iidm:reactiveCapabilityCurve>
            </iidm:vscConverterStation>
        </iidm:voltageLevel>
    </iidm:substation>
    <iidm:substation id="FVALD" country="FR" tso="RTE">
        <iidm:property name="paysCvg" value="FRANCE"/>
        <iidm:property name="regionCvg" value="LILLE"/>
        <iidm:voltageLevel id="FVALDI1" nominalV="380.0" lowVoltageLimit="342.0" highVoltageLimit="418.00012" topologyKind="NODE_BREAKER">
            <iidm:nodeBreakerTopology nodeCount="22">
                <iidm:busbarSection id="FVALDI1_1" name="1" node="0" v="380.0" angle="-0.07618283"/>
                <iidm:busbarSection id="FVALDI1_mnv" name="mnv" node="1" v="380.0" angle="-0.07618283"/>
                <iidm:switch id="FVALDI1_FVALDI11_G_SC3_0" name="FVALDI11_G_SC3_0" kind="DISCONNECTOR" retained="false" open="false" node1="0" node2="2"/>
                <iidm:switch id="FVALDI1_FVALDI11_G_SC3_1" name="FVALDI11_G_SC3_1" kind="DISCONNECTOR" retained="false" open="true" node1="1" node2="2"/>
                <iidm:switch id="FVALDI1_FVALDI11_G_DJ3" name="FVALDI11_G_DJ3" kind="BREAKER" retained="false" open="false" node1="2" node2="3"/>
                <iidm:switch id="FVALDI1_FS.BIS1  FVALDI1  1_SC5_0" name="FS.BIS1  FVALDI1  1_SC5_0" kind="DISCONNECTOR" retained="false" open="false" node1="0" node2="4"/>
                <iidm:switch id="FVALDI1_FS.BIS1  FVALDI1  1_SC5_1" name="FS.BIS1  FVALDI1  1_SC5_1" kind="DISCONNECTOR" retained="false" open="true" node1="1" node2="4"/>
                <iidm:switch id="FVALDI1_FS.BIS1  FVALDI1  1_DJ5" name="FS.BIS1  FVALDI1  1_DJ5" kind="BREAKER" retained="false" open="false" node1="4" node2="5"/>
                <iidm:switch id="FVALDI1_FS.BIS1  FVALDI1  2_SC7_0" name="FS.BIS1  FVALDI1  2_SC7_0" kind="DISCONNECTOR" retained="false" open="true" node1="0" node2="6"/>
                <iidm:switch id="FVALDI1_FS.BIS1  FVALDI1  2_SC7_1" name="FS.BIS1  FVALDI1  2_SC7_1" kind="DISCONNECTOR" retained="false" open="false" node1="1" node2="6"/>
                <iidm:switch id="FVALDI1_FS.BIS1  FVALDI1  2_DJ7" name="FS.BIS1  FVALDI1  2_DJ7" kind="BREAKER" retained="false" open="false" node1="6" node2="7"/>
                <iidm:switch id="FVALDI1_FVALDI1  FTDPRA1  1_SC9_0" name="FVALDI1  FTDPRA1  1_SC9_0" kind="DISCONNECTOR" retained="false" open="false" node1="0" node2="8"/>
                <iidm:switch id="FVALDI1_FVALDI1  FTDPRA1  1_SC9_1" name="FVALDI1  FTDPRA1  1_SC9_1" kind="DISCONNECTOR" retained="false" open="true" node1="1" node2="8"/>
                <iidm:switch id="FVALDI1_FVALDI1  FTDPRA1  1_DJ9" name="FVALDI1  FTDPRA1  1_DJ9" kind="BREAKER" retained="false" open="false" node1="8" node2="9"/>
                <iidm:switch id="FVALDI1_FVALDI1  FTDPRA1  2_SC11_0" name="FVALDI1  FTDPRA1  2_SC11_0" kind="DISCONNECTOR" retained="false" open="true" node1="0" node2="10"/>
                <iidm:switch id="FVALDI1_FVALDI1  FTDPRA1  2_SC11_1" name="FVALDI1  FTDPRA1  2_SC11_1" kind="DISCONNECTOR" retained="false" open="false" node1="1" node2="10"/>
                <iidm:switch id="FVALDI1_FVALDI1  FTDPRA1  2_DJ11" name="FVALDI1  FTDPRA1  2_DJ11" kind="BREAKER" retained="false" open="false" node1="10" node2="11"/>
                <iidm:switch id="FVALDI1__SC12_0" name="_SC12_0" kind="DISCONNECTOR" retained="false" open="false" node1="0" node2="12"/>
                <iidm:switch id="FVALDI1__SC12_1" name="_SC12_1" kind="DISCONNECTOR" retained="false" open="true" node1="1" node2="12"/>
                <iidm:switch id="FVALDI1__SC13_0" name="_SC13_0" kind="DISCONNECTOR" retained="false" open="true" node1="0" node2="13"/>
                <iidm:switch id="FVALDI1__SC13_1" name="_SC13_1" kind="DISCONNECTOR" retained="false" open="false" node1="1" node2="13"/>
                <iidm:switch id="FVALDI1_FVALDI1_DJ_OMN" name="FVALDI1_DJ_OMN" kind="BREAKER" retained="true" open="false" node1="12" node2="13"/>
                <iidm:switch id="FVALDI1_Disj HVDC1" name="Disj HVDC1" kind="BREAKER" retained="false" open="false" node1="14" node2="15"/>
                <iidm:switch id="FVALDI1_Sect 1 HVDC1" name="Sect 1 HVDC1" kind="DISCONNECTOR" retained="false" open="false" node1="15" node2="0"/>
                <iidm:switch id="FVALDI1_Sect mnv HVDC1" name="Sect mnv HVDC1" kind="DISCONNECTOR" retained="false" open="true" node1="15" node2="1"/>
                <iidm:switch id="FVALDI1_Disj HVDC2" name="Disj HVDC2" kind="BREAKER" retained="false" open="false" node1="16" node2="17"/>
                <iidm:switch id="FVALDI1_Sect 1 HVDC2" name="Sect 1 HVDC2" kind="DISCONNECTOR" retained="false" open="false" node1="17" node2="0"/>
                <iidm:switch id="FVALDI1_Sect mnv HVDC2" name="Sect mnv HVDC2" kind="DISCONNECTOR" retained="false" open="true" node1="17" node2="1"/>
                <iidm:switch id="FVALDI1_Disj FVALDI11_L" name="Disj FVALDI11_L" kind="BREAKER" retained="false" open="false" node1="18" node2="19"/>
                <iidm:switch id="FVALDI1_Sect 1 FVALDI11_L" name="Sect 1 FVALDI11_L" kind="DISCONNECTOR" retained="false" open="false" node1="19" node2="0"/>
                <iidm:switch id="FVALDI1_Sect mnv FVALDI11_L" name="Sect mnv FVALDI11_L" kind="DISCONNECTOR" retained="false" open="true" node1="19" node2="1"/>
                <iidm:switch id="FVALDI1_Disj FVALDI11_L2" name="Disj FVALDI11_L2" kind="BREAKER" retained="false" open="false" node1="20" node2="21"/>
                <iidm:switch id="FVALDI1_Sect 1 FVALDI11_L2" name="Sect 1 FVALDI11_L2" kind="DISCONNECTOR" retained="false" open="true" node1="21" node2="0"/>
                <iidm:switch id="FVALDI1_Sect mnv FVALDI11_L2" name="Sect mnv FVALDI11_L2" kind="DISCONNECTOR" retained="false" open="false" node1="21" node2="1"/>
            </iidm:nodeBreakerTopology>
            <iidm:generator id="FVALDI11_G" energySource="THERMAL" minP="0.0" maxP="2500.0" voltageRegulatorOn="true" targetP="0.0" targetV="406.45004" targetQ="6.45498" node="3" p="-0.0">
                <iidm:property name="genreCvg" value="CHARBON"/>
                <iidm:reactiveCapabilityCurve>
                    <iidm:point p="0.0" minQ="-200.0" maxQ="200.0"/>
                    <iidm:point p="2500.0" minQ="-200.0" maxQ="200.0"/>
                </iidm:reactiveCapabilityCurve>
            </iidm:generator>
            <iidm:load id="FVALDI11_L" loadType="UNDEFINED" p0="480.0" q0="4.8" node="18" p="480.0"/>
            <iidm:load id="FVALDI11_L2" loadType="UNDEFINED" p0="0.0" q0="4.8" node="20" p="0.0"/>
            <iidm:vscConverterStation id="FVALDI1_FVALDI1_HVDC1" name="FVALDI1_HVDC1" voltageRegulatorOn="false" lossFactor="2.0" voltageSetpoint="406.0" reactivePowerSetpoint="0.0" node="14" p="0.0">
                <iidm:reactiveCapabilityCurve>
                    <iidm:point p="-1011.0" minQ="-300.0" maxQ="300.0"/>
                    <iidm:point p="1011.0" minQ="-300.0" maxQ="300.0"/>
                </iidm:reactiveCapabilityCurve>
            </iidm:vscConverterStation>
            <iidm:vscConverterStation id="FVALDI1_FVALDI1_HVDC2" name="FVALDI1_HVDC2" voltageRegulatorOn="false" lossFactor="2.0" voltageSetpoint="406.0" reactivePowerSetpoint="0.0" node="16" p="0.0">
                <iidm:reactiveCapabilityCurve>
                    <iidm:point p="-1011.0" minQ="-300.0" maxQ="300.0"/>
                    <iidm:point p="1011.0" minQ="-300.0" maxQ="300.0"/>
                </iidm:reactiveCapabilityCurve>
            </iidm:vscConverterStation>
        </iidm:voltageLevel>
    </iidm:substation>
    <iidm:substation id="FVERG" country="FR" tso="RTE">
        <iidm:property name="paysCvg" value="FRANCE"/>
        <iidm:property name="regionCvg" value="LILLE"/>
        <iidm:voltageLevel id="FVERGE1" nominalV="380.0" lowVoltageLimit="342.0" highVoltageLimit="418.00012" topologyKind="NODE_BREAKER">
            <iidm:nodeBreakerTopology nodeCount="14">
                <iidm:busbarSection id="FVERGE1_1" name="1" node="0" v="380.0" angle="-0.019045739"/>
                <iidm:busbarSection id="FVERGE1_mnv" name="mnv" node="1" v="380.0" angle="-0.019045739"/>
                <iidm:switch id="FVERGE1_FVERGE11_G_SC3_0" name="FVERGE11_G_SC3_0" kind="DISCONNECTOR" retained="false" open="false" node1="0" node2="2"/>
                <iidm:switch id="FVERGE1_FVERGE11_G_SC3_1" name="FVERGE11_G_SC3_1" kind="DISCONNECTOR" retained="false" open="true" node1="1" node2="2"/>
                <iidm:switch id="FVERGE1_FVERGE11_G_DJ3" name="FVERGE11_G_DJ3" kind="BREAKER" retained="false" open="true" node1="2" node2="3"/>
                <iidm:switch id="FVERGE1_FP.AND1  FVERGE1  1_SC5_0" name="FP.AND1  FVERGE1  1_SC5_0" kind="DISCONNECTOR" retained="false" open="false" node1="0" node2="4"/>
                <iidm:switch id="FVERGE1_FP.AND1  FVERGE1  1_SC5_1" name="FP.AND1  FVERGE1  1_SC5_1" kind="DISCONNECTOR" retained="false" open="true" node1="1" node2="4"/>
                <iidm:switch id="FVERGE1_FP.AND1  FVERGE1  1_DJ5" name="FP.AND1  FVERGE1  1_DJ5" kind="BREAKER" retained="false" open="false" node1="4" node2="5"/>
                <iidm:switch id="FVERGE1_FP.AND1  FVERGE1  2_SC7_0" name="FP.AND1  FVERGE1  2_SC7_0" kind="DISCONNECTOR" retained="false" open="false" node1="0" node2="6"/>
                <iidm:switch id="FVERGE1_FP.AND1  FVERGE1  2_SC7_1" name="FP.AND1  FVERGE1  2_SC7_1" kind="DISCONNECTOR" retained="false" open="true" node1="1" node2="6"/>
                <iidm:switch id="FVERGE1_FP.AND1  FVERGE1  2_DJ7" name="FP.AND1  FVERGE1  2_DJ7" kind="BREAKER" retained="false" open="false" node1="6" node2="7"/>
                <iidm:switch id="FVERGE1_FTDPRA1  FVERGE1  1_SC9_0" name="FTDPRA1  FVERGE1  1_SC9_0" kind="DISCONNECTOR" retained="false" open="false" node1="0" node2="8"/>
                <iidm:switch id="FVERGE1_FTDPRA1  FVERGE1  1_SC9_1" name="FTDPRA1  FVERGE1  1_SC9_1" kind="DISCONNECTOR" retained="false" open="true" node1="1" node2="8"/>
                <iidm:switch id="FVERGE1_FTDPRA1  FVERGE1  1_DJ9" name="FTDPRA1  FVERGE1  1_DJ9" kind="BREAKER" retained="false" open="false" node1="8" node2="9"/>
                <iidm:switch id="FVERGE1_FTDPRA1  FVERGE1  2_SC11_0" name="FTDPRA1  FVERGE1  2_SC11_0" kind="DISCONNECTOR" retained="false" open="false" node1="0" node2="10"/>
                <iidm:switch id="FVERGE1_FTDPRA1  FVERGE1  2_SC11_1" name="FTDPRA1  FVERGE1  2_SC11_1" kind="DISCONNECTOR" retained="false" open="true" node1="1" node2="10"/>
                <iidm:switch id="FVERGE1_FTDPRA1  FVERGE1  2_DJ11" name="FTDPRA1  FVERGE1  2_DJ11" kind="BREAKER" retained="false" open="false" node1="10" node2="11"/>
                <iidm:switch id="FVERGE1__SC12_0" name="_SC12_0" kind="DISCONNECTOR" retained="false" open="false" node1="0" node2="12"/>
                <iidm:switch id="FVERGE1__SC12_1" name="_SC12_1" kind="DISCONNECTOR" retained="false" open="true" node1="1" node2="12"/>
                <iidm:switch id="FVERGE1__SC13_0" name="_SC13_0" kind="DISCONNECTOR" retained="false" open="true" node1="0" node2="13"/>
                <iidm:switch id="FVERGE1__SC13_1" name="_SC13_1" kind="DISCONNECTOR" retained="false" open="false" node1="1" node2="13"/>
                <iidm:switch id="FVERGE1_FVERGE1_DJ_OMN" name="FVERGE1_DJ_OMN" kind="BREAKER" retained="false" open="false" node1="12" node2="13"/>
            </iidm:nodeBreakerTopology>
            <iidm:generator id="FVERGE11_G" energySource="THERMAL" minP="0.0" maxP="600.0" voltageRegulatorOn="true" targetP="0.0" targetV="406.45004" targetQ="7.48158" node="3" p="-0.0">
                <iidm:property name="genreCvg" value="CHARBON"/>
                <iidm:reactiveCapabilityCurve>
                    <iidm:point p="0.0" minQ="-200.0" maxQ="200.0"/>
                    <iidm:point p="600.0" minQ="-200.0" maxQ="200.0"/>
                </iidm:reactiveCapabilityCurve>
            </iidm:generator>
        </iidm:voltageLevel>
    </iidm:substation>
    <iidm:line id="FP.AND1  FVERGE1  1" r="1.0" x="1.0" g1="0.0" b1="0.0" g2="0.0" b2="0.0" node1="3" voltageLevelId1="FP.AND1" node2="5" voltageLevelId2="FVERGE1" p1="48.00013" p2="-48.00013">
        <iidm:currentLimits1 permanentLimit="600.0">
            <iidm:temporaryLimit name="IT20" acceptableDuration="1200" value="650.0"/>
            <iidm:temporaryLimit name="IT10" acceptableDuration="600" value="700.0"/>
            <iidm:temporaryLimit name="IT0.0166667" acceptableDuration="1"/>
        </iidm:currentLimits1>
        <iidm:currentLimits2 permanentLimit="600.0"/>
    </iidm:line>
    <iidm:line id="FP.AND1  FVERGE1  2" r="2.0" x="1.0" g1="0.0" b1="0.0" g2="0.0" b2="0.0" node1="5" voltageLevelId1="FP.AND1" node2="7" voltageLevelId2="FVERGE1" p1="48.00013" p2="-48.00013">
        <iidm:currentLimits1 permanentLimit="600.0">
            <iidm:temporaryLimit name="IT20" acceptableDuration="1200" value="650.0"/>
            <iidm:temporaryLimit name="IT10" acceptableDuration="600" value="700.0"/>
            <iidm:temporaryLimit name="IT0.0166667" acceptableDuration="1"/>
        </iidm:currentLimits1>
        <iidm:currentLimits2 permanentLimit="600.0"/>
    </iidm:line>
    <iidm:line id="FS.BIS1  FVALDI1  1" r="3.0" x="1.0" g1="0.0" b1="0.0" g2="0.0" b2="0.0" node1="3" voltageLevelId1="FS.BIS1" node2="5" voltageLevelId2="FVALDI1" p1="144.00006" p2="-144.00006">
        <iidm:currentLimits1 permanentLimit="500.00006">
            <iidm:temporaryLimit name="IST" value="550.0" fictitious="true"/>
            <iidm:temporaryLimit name="IT20" acceptableDuration="1200" value="500.00006"/>
            <iidm:temporaryLimit name="IT10" acceptableDuration="600" value="600.0"/>
            <iidm:temporaryLimit name="IT0.0166667" acceptableDuration="1"/>
        </iidm:currentLimits1>
        <iidm:currentLimits2 permanentLimit="500.00006"/>
    </iidm:line>
    <iidm:line id="FS.BIS1  FVALDI1  2" r="4.0" x="1.0" g1="0.0" b1="0.0" g2="0.0" b2="0.0" node1="5" voltageLevelId1="FS.BIS1" node2="7" voltageLevelId2="FVALDI1" p1="144.00006" p2="-144.00006">
        <iidm:currentLimits1 permanentLimit="500.00006">
            <iidm:temporaryLimit name="IST" value="550.0" fictitious="true"/>
            <iidm:temporaryLimit name="IT20" acceptableDuration="1200" value="500.00006"/>
            <iidm:temporaryLimit name="IT10" acceptableDuration="600" value="600.0"/>
            <iidm:temporaryLimit name="IT0.0166667" acceptableDuration="1"/>
        </iidm:currentLimits1>
        <iidm:currentLimits2 permanentLimit="500.00006"/>
    </iidm:line>
    <iidm:line id="FS.BIS1 FSSV.O1 1" r="5.0" x="1.0" g1="0.0" b1="0.0" g2="0.0" b2="0.0" node1="8" voltageLevelId1="FS.BIS1" node2="14" voltageLevelId2="FSSV.O1" p1="-144.00006" p2="144.00006">
        <iidm:currentLimits1 permanentLimit="500.00006">
            <iidm:temporaryLimit name="IST" value="550.0" fictitious="true"/>
            <iidm:temporaryLimit name="IT20" acceptableDuration="1200" value="500.00006"/>
            <iidm:temporaryLimit name="IT10" acceptableDuration="600" value="600.0"/>
            <iidm:temporaryLimit name="IT0.0166667" acceptableDuration="1"/>
        </iidm:currentLimits1>
        <iidm:currentLimits2 permanentLimit="500.00006"/>
    </iidm:line>
    <iidm:line id="FS.BIS1 FSSV.O1 2" r="6.0" x="1.0" g1="0.0" b1="0.0" g2="0.0" b2="0.0" node1="10" voltageLevelId1="FS.BIS1" node2="16" voltageLevelId2="FSSV.O1" p1="-144.00006" p2="144.00006">
        <iidm:currentLimits1 permanentLimit="500.00006">
            <iidm:temporaryLimit name="IST" value="550.0" fictitious="true"/>
            <iidm:temporaryLimit name="IT20" acceptableDuration="1200" value="500.00006"/>
            <iidm:temporaryLimit name="IT10" acceptableDuration="600" value="600.0"/>
            <iidm:temporaryLimit name="IT0.0166667" acceptableDuration="1"/>
        </iidm:currentLimits1>
        <iidm:currentLimits2 permanentLimit="500.00006"/>
    </iidm:line>
    <iidm:line id="FSSV.O1  FP.AND1  1" r="7.0" x="1.0" g1="0.0" b1="0.0" g2="0.0" b2="0.0" node1="5" voltageLevelId1="FSSV.O1" node2="7" voltageLevelId2="FP.AND1" p1="95.99994" p2="-95.99994">
        <iidm:currentLimits1 permanentLimit="600.0">
            <iidm:temporaryLimit name="IT20" acceptableDuration="1200" value="650.0"/>
            <iidm:temporaryLimit name="IT10" acceptableDuration="600" value="700.0"/>
            <iidm:temporaryLimit name="IT0.0166667" acceptableDuration="1"/>
        </iidm:currentLimits1>
        <iidm:currentLimits2 permanentLimit="600.0"/>
    </iidm:line>
    <iidm:line id="FSSV.O1  FP.AND1  2" r="8.0" x="1.0" g1="0.0" b1="0.0" g2="0.0" b2="0.0" node1="7" voltageLevelId1="FSSV.O1" node2="9" voltageLevelId2="FP.AND1" p1="95.99994" p2="-95.99994">
        <iidm:currentLimits1 permanentLimit="600.0">
            <iidm:temporaryLimit name="IT20" acceptableDuration="1200" value="650.0"/>
            <iidm:temporaryLimit name="IT10" acceptableDuration="600" value="700.0"/>
            <iidm:temporaryLimit name="IT0.0166667" acceptableDuration="1"/>
        </iidm:currentLimits1>
        <iidm:currentLimits2 permanentLimit="600.0"/>
    </iidm:line>
    <iidm:line id="FTDPRA1  FVERGE1  1" r="9.0" x="1.0" g1="0.0" b1="0.0" g2="0.0" b2="0.0" node1="3" voltageLevelId1="FTDPRA1" node2="9" voltageLevelId2="FVERGE1" p1="-48.00013" p2="48.00013">
        <iidm:currentLimits1 permanentLimit="600.0">
            <iidm:temporaryLimit name="IT20" acceptableDuration="1200" value="650.0"/>
            <iidm:temporaryLimit name="IT10" acceptableDuration="600" value="700.0"/>
            <iidm:temporaryLimit name="IT0.0166667" acceptableDuration="1"/>
        </iidm:currentLimits1>
        <iidm:currentLimits2 permanentLimit="600.0"/>
    </iidm:line>
    <iidm:line id="FTDPRA1  FVERGE1  2" r="10.0" x="1.0" g1="0.0" b1="0.0" g2="0.0" b2="0.0" node1="5" voltageLevelId1="FTDPRA1" node2="11" voltageLevelId2="FVERGE1" p1="-48.00013" p2="48.00013">
        <iidm:currentLimits1 permanentLimit="600.0">
            <iidm:temporaryLimit name="IT20" acceptableDuration="1200" value="650.0"/>
            <iidm:temporaryLimit name="IT10" acceptableDuration="600" value="700.0"/>
            <iidm:temporaryLimit name="IT0.0166667" acceptableDuration="1"/>
        </iidm:currentLimits1>
        <iidm:currentLimits2 permanentLimit="600.0"/>
    </iidm:line>
    <iidm:line id="FVALDI1  FTDPRA1  1" r="11.0" x="1.0" g1="0.0" b1="0.0" g2="0.0" b2="0.0" node1="9" voltageLevelId1="FVALDI1" node2="7" voltageLevelId2="FTDPRA1" p1="-95.99994" p2="95.99994">
        <iidm:currentLimits1 permanentLimit="600.0">
            <iidm:temporaryLimit name="IT20" acceptableDuration="1200" value="650.0"/>
            <iidm:temporaryLimit name="IT10" acceptableDuration="600" value="700.0"/>
            <iidm:temporaryLimit name="IT0.0166667" acceptableDuration="1"/>
        </iidm:currentLimits1>
        <iidm:currentLimits2 permanentLimit="600.0"/>
    </iidm:line>
    <iidm:line id="FVALDI1  FTDPRA1  2" r="12.0" x="1.0" g1="0.0" b1="0.0" g2="0.0" b2="0.0" node1="11" voltageLevelId1="FVALDI1" node2="9" voltageLevelId2="FTDPRA1" p1="-95.99994" p2="95.99994">
        <iidm:currentLimits1 permanentLimit="600.0">
            <iidm:temporaryLimit name="IT20" acceptableDuration="1200" value="650.0"/>
            <iidm:temporaryLimit name="IT10" acceptableDuration="600" value="700.0"/>
            <iidm:temporaryLimit name="IT0.0166667" acceptableDuration="1"/>
        </iidm:currentLimits1>
        <iidm:currentLimits2 permanentLimit="600.0"/>
    </iidm:line>
    <iidm:hvdcLine id="HVDC1" r="0.25" nominalV="320.0" convertersMode="SIDE_1_RECTIFIER_SIDE_2_INVERTER" activePowerSetpoint="0.0" maxP="1011.0" converterStation1="FSSV.O1_FSSV.O1_HVDC1" converterStation2="FVALDI1_FVALDI1_HVDC1"/>
    <iidm:hvdcLine id="HVDC2" r="0.25" nominalV="320.0" convertersMode="SIDE_1_RECTIFIER_SIDE_2_INVERTER" activePowerSetpoint="0.0" maxP="1011.0" converterStation1="FSSV.O1_FSSV.O1_HVDC2" converterStation2="FVALDI1_FVALDI1_HVDC2"/>
    <iidm:extension id="HVDC2">
        <hopr:hvdcOperatorActivePowerRange fromCS1toCS2="1000.0" fromCS2toCS1="1000.0"/>
        <hapc:hvdcAngleDroopActivePowerControl p0="100.0" droop="180.0" enabled="false"/>
    </iidm:extension>
</iidm:network>
